<routes>

    <flow id="01" type="Car" begin="0" end="72000" number="6280" from="edge1-0" to="edge0-2" departPos="1" departLane="best" departSpeed="5.0"/>
    <flow id="02" type="Car" begin="0" end="72000" number="5980" from="edge2-0" to="edge0-1" departPos="2" departLane="best" departSpeed="5.0"/>
    <flow id="03" type="Car" begin="0" end="72000" number="12240" from="edge3-0" to="edge0-4" departPos="3" departLane="best" departSpeed="5.0"/>
    <flow id="04" type="Car" begin="0" end="72000" number="6980" from="edge4-0" to="edge0-3" departPos="4" departLane="best" departSpeed="5.0"/>
	
	<flow id="11" type="Car" begin="0" end="72000" number="1000" from="edge1-0" to="edge0-4" departPos="1" departLane="best" departSpeed="5.0"/>
	<flow id="12" type="Car" begin="0" end="72000" number="1060" from="edge2-0" to="edge0-3" departPos="2" departLane="best" departSpeed="5.0"/>
	<flow id="13" type="Car" begin="0" end="72000" number="2180" from="edge3-0" to="edge0-1" departPos="3" departLane="best" departSpeed="5.0"/>
	<flow id="14" type="Car" begin="0" end="72000" number="1240" from="edge4-0" to="edge0-2" departPos="4" departLane="best" departSpeed="5.0"/>	
</routes>